  Page 1                                    Sun Apr 23 19:59:06 2023

  ******************************************************************
  *                           E P A N E T                          *
  *                   Hydraulic and Water Quality                  *
  *                   Analysis for Pipe Networks                   *
  *                         Version 2.2                            *
  ******************************************************************
  
  Analysis begun Sun Apr 23 19:59:07 2023

  Analysis ended Sun Apr 23 19:59:33 2023
